*EXP.DETAILS: UKBL2001FB COVER CROP EXPERIMENT IN A LONG TERM N TRIAL

*GENERAL
@PEOPLE
Hanna Poffenbarger, Montse Salmeron, Patricia Moreno
@ADDRESS
Splindetop farm, University of Kentucky 
@SITE
latitude 38.1233333333333, longitude -84.4972222222222, elevation 267
@ PAREA  PRNO  PLEN  PLDR  PLSP  PLAY HAREA  HRNO  HLEN  HARM.........
    -99   -99   -99   -99   -99   -99   -99   -99   -99   -99

*TREATMENTS                        -------------FACTOR LEVELS------------
@N R O C TNAME.................... CU FL SA IC MP MI MF MR MC MT ME MH SM
 1 1 1 0 Clover N 0 year 2          1  1  1  1  1  0  1  1  0  0  0  1  1
 2 1 1 0 Clover N 84 year 2         1  1  2  2  1  0  1  2  0  0  0  1  1
 3 1 1 0 Clover N 168 year 2        1  1  3  3  1  0  1  3  0  0  0  1  1
 4 1 1 0 Clover N 336 year 2        1  1  4  4  1  0  1  4  0  0  0  1  1

*CULTIVARS
@C CR INGENO CNAME
 1 CV UK0001 Kentucky pride

*FIELDS
@L ID_FIELD WSTA....  FLSA  FLOB  FLDT  FLDD  FLDS  FLST SLTX  SLDP  ID_SOIL    FLNAME
 1 UKBL0001 KYNO2003   -99   -99   -99   -99   -99   -99  -99   -99  UKBLVTRT09 -99
@L ...........XCRD ...........YCRD .....ELEV .............AREA .SLEN .FLWR .SLAS FLHST FHDUR
 1       -84.49722        38.12333       267               -99   -99   -99   -99   -99   -99

*SOIL ANALYSIS
@A SADAT  SMHB  SMPX  SMKE  SANAME
 1 21283 SA011 SA007 SA013  N 0
@A  SABL  SADM  SAOC  SANI SAPHW SAPHB  SAPX  SAKE  SASC
 1     5   1.3   .98    .1   6.1   6.7  36.8 171.6 0.672
 1    10   1.3   .98    .1   6.1   6.7  36.8 171.6 0.672
 1    15   1.3   .98    .1   6.1   6.7  36.8 171.6 0.672
 1    20   1.4   .77   .09   6.1   6.8    43 138.8 0.672
 1    30   1.4   .77   .09   6.1   6.8    43 138.8 0.672
 1    40   1.5   .38   .06   6.1   6.8    43 138.8 0.361
 1    50   1.5   .38   .06   6.1   6.8    43 138.8 0.361
 1    60   1.5   .38   .06   6.1   6.8    43 138.8 0.361
 1    70   1.5   .17   .03   6.1   6.8    43 138.8 0.162
 1    90   1.5   .17   .03   6.1   6.8    43 138.8 0.162
 1   120   1.5   .11   .03   6.1   6.8    43 138.8 0.105
 1   150   1.5   .11   .02   6.1   6.8    43 138.8 0.105
 1   210   1.5   .11   .02   6.1   6.8    43 138.8 0.105
@A SADAT  SMHB  SMPX  SMKE  SANAME
 2 21283 SA011 SA007 SA013  N 84
@A  SABL  SADM  SAOC  SANI SAPHW SAPHB  SAPX  SAKE  SASC
 2     5   1.4  1.08   .12     6   6.8  31.8 161.5 0.672
 2    10   1.4  1.08   .12     6   6.8  31.8 161.5 0.672
 2    15   1.4  1.08   .12     6   6.8  31.8 161.5 0.672
 2    20   1.6    .8   .09   6.1   6.8  29.1 113.4 0.672
 2    30   1.6    .8   .09   6.1   6.8  29.1 113.4 0.672
 2    40   1.7   .38   .06   6.1   6.8  29.1 113.4 0.361
 2    50   1.7   .38   .06   6.1   6.8  29.1 113.4 0.361
 2    60   1.7   .38   .06   6.1   6.8  29.1 113.4 0.361
 2    70   1.7   .23   .03   6.1   6.8  29.1 113.4 0.219
 2    90   1.7   .23   .03   6.1   6.8  29.1 113.4 0.219
 2   120   1.7   .15   .02   6.1   6.8  29.1 113.4 0.143
 2   150   1.7   .15   .02   6.1   6.8  29.1 113.4 0.143
 2   210   1.7   .15   .02   6.1   6.8  29.1 113.4 0.143
@A SADAT  SMHB  SMPX  SMKE  SANAME
 3 21283 SA011 SA007 SA013  N 168
@A  SABL  SADM  SAOC  SANI SAPHW SAPHB  SAPX  SAKE  SASC
 3     5   1.4  1.14   .12   5.8   6.8  31.5 135.5 0.672
 3    10   1.4  1.14   .12   5.8   6.8  31.5 135.5 0.672
 3    15   1.4  1.14   .12   5.8   6.8  31.5 135.5 0.672
 3    20   1.6   .91   .09     6   6.8  35.1 104.6 0.672
 3    30   1.6   .91   .09     6   6.8  35.1 104.6 0.672
 3    40   1.7   .36   .06     6   6.8  35.1 104.6 0.299
 3    50   1.7   .36   .06     6   6.8  35.1 104.6 0.299
 3    60   1.7   .36   .06     6   6.8  35.1 104.6 0.299
 3    70   1.7   .18   .03     6   6.8  35.1 104.6 0.149
 3    90   1.7   .18   .03     6   6.8  35.1 104.6 0.149
 3   120   1.7   .12   .02     6   6.8  35.1 104.6 0.100
 3   150   1.7   .12   .02     6   6.8  35.1 104.6 0.100
 3   210   1.7   .12   .02     6   6.8  35.1 104.6 0.100
@A SADAT  SMHB  SMPX  SMKE  SANAME
 4 21283 SA011 SA007 SA013  N 336
@A  SABL  SADM  SAOC  SANI SAPHW SAPHB  SAPX  SAKE  SASC
 4     5   1.3  1.26   .12   6.1   6.8  37.1   132 0.672
 4    10   1.3  1.26   .12   6.1   6.8  37.1   132 0.672
 4    15   1.3  1.26   .12   6.1   6.8  37.1   132 0.672
 4    20   1.5   .86   .09   6.4   6.8  40.4  99.4 0.672
 4    30   1.5   .86   .09   6.4   6.8  40.4  99.4 0.672
 4    40   1.6   .39   .06   6.4   6.8  40.4  99.4 0.324
 4    50   1.6   .39   .06   6.4   6.8  40.4  99.4 0.324
 4    60   1.6   .39   .06   6.4   6.8  40.4  99.4 0.324
 4    70   1.6   .22   .03   6.4   6.8  40.4  99.4 0.183
 4    90   1.6   .22   .03   6.4   6.8  40.4  99.4 0.183
 4   120   1.6   .15   .02   6.4   6.8  40.4  99.4 0.125
 4   150   1.6   .15   .02   6.4   6.8  40.4  99.4 0.125
 4   210   1.6   .15   .02   6.4   6.8  40.4  99.4 0.125
!LPM Initial conditions values after 60 cm are kept as the ones of 60 cm
!Crop residue estimated from proportion of stover/yield of rye and maize yield of 2021
*INITIAL CONDITIONS
@C   PCR ICDAT  ICRT  ICND  ICRN  ICRE  ICWD ICRES ICREN ICREP ICRIP ICRID ICNAME
 1    MZ 21283  1354   -99     1     1   -99   -99   .31   -99     0     0 N 0
@C  ICBL  SH2O  SNH4  SNO3
 1     5  .293   0.3   1.7
 1    10  .293   0.3   1.7
 1    15  .293   0.3   1.7
 1    20  .389   0.5   1.9
 1    30  .389   0.5   1.9
 1    40  .378   0.7    .1
 1    50  .378   0.7    .1
 1    60  .378   0.7    .1
 1    70  .376   0.7    .1
 1    90  .376   0.7    .1
 1   120  .376   0.7    .1
 1   150  .376   0.7    .1
 1   210  .376   0.7    .1
@C   PCR ICDAT  ICRT  ICND  ICRN  ICRE  ICWD ICRES ICREN ICREP ICRIP ICRID ICNAME
 2    MZ 21283  2026   -99     1     1   -99   -99   .37   -99     0     0 N 84
@C  ICBL  SH2O  SNH4  SNO3
 2     5  .307   0.3   4.1
 2    10  .307   0.3   4.1
 2    15  .307   0.3   4.1
 2    20  .335   0.5   3.0
 2    30  .335   0.5   3.0
 2    40  .358    .1    .8
 2    50  .358    .1    .8
 2    60  .358    .1    .8
 2    70  .357    .1    .8
 2    90  .357    .1    .8
 2   120  .357    .1    .8
 2   150  .357    .1    .8
 2   210  .357    .1    .8
@C   PCR ICDAT  ICRT  ICND  ICRN  ICRE  ICWD ICRES ICREN ICREP ICRIP ICRID ICNAME
 3    MZ 21283  2023   -99     1     1   -99   -99   .37   -99     0     0 N 168
@C  ICBL  SH2O  SNH4  SNO3
 3     5  .292    .2   2.2
 3    10  .292    .2   2.2
 3    15  .292    .2   2.2
 3    20  .331   1.9   3.6
 3    30  .331   1.9   3.6
 3    40  .389    .5   1.8
 3    50  .389    .5   1.8
 3    60  .389    .5   1.8
 3    70  .387    .5   1.8
 3    90  .387    .5   1.8
 3   120  .387    .5   1.8
 3   150  .387    .5   1.8
 3   210  .387    .5   1.8
@C   PCR ICDAT  ICRT  ICND  ICRN  ICRE  ICWD ICRES ICREN ICREP ICRIP ICRID ICNAME
 4    MZ 21283  2322   -99     1     1   -99   -99   .65   -99     0     0 N 336
@C  ICBL  SH2O  SNH4  SNO3
 4     5  .321    .7   5.3
 4    10  .321    .7   5.3
 4    15  .321    .7   5.3
 4    20  .333    .1   8.9
 4    30  .333    .1   8.9
 4    40  .331    .2     7
 4    50  .331    .2     7
 4    60  .331    .2     7
 4    70  .330    .2  10.2
 4    90  .330    .2  10.2
 4   120  .330    .2  10.2
 4   150  .330    .2  10.2
 4   210  .330    .2  10.2

*PLANTING DETAILS
@P PDATE EDATE  PPOP  PPOE  PLME  PLDS  PLRS  PLRD  PLDP  PLWT  PAGE  PENV  PLPH  SPRL                        PLNAME
 1 21287   -99   445   -99     S     R    15    90     5    34   -99   -99   -99   -99                        -99

*FERTILIZERS (INORGANIC)
@F FDATE  FMCD  FACD  FDEP  FAMN  FAMP  FAMK  FAMC  FAMO  FOCD FERNAME
 1 21287 FE400 AP003     0     0     0    28   -99   -99   -99 -99

*RESIDUES AND ORGANIC FERTILIZER
@R RDATE  RCOD  RAMT  RESN  RESP  RESK  RINP  RDEP  RMET RENAME
 1 21283 RE203  6768   .31   -99   -99   -99   -99   -99 N 0
 2 21283 RE203 10128   .37   -99   -99   -99   -99   -99 N 84
 3 21283 RE203 10114   .37   -99   -99   -99   -99   -99 N 168
 4 21283 RE203 11612   .65   -99   -99   -99   -99   -99 N 336

*HARVEST DETAILS
@H HDATE  HSTG  HCOM HSIZE   HPC  HBPC HNAME
 1 22125 GS000   -99   -99   -99   -99 

*SIMULATION CONTROLS
@N GENERAL     NYERS NREPS START SDATE RSEED SNAME.................... SMODEL
 1 GE              1     1     S 21283  2150 DEFAULT SIMULATION CONTR  
@N OPTIONS     WATER NITRO SYMBI PHOSP POTAS DISES  CHEM  TILL   CO2
 1 OP              Y     Y     Y     N     N     N     N     Y     M
@N METHODS     WTHER INCON LIGHT EVAPO INFIL PHOTO HYDRO NSWIT MESOM MESEV MESOL
 1 ME              M     M     E     R     S     C     R     1     P     R     2
@N MANAGEMENT  PLANT IRRIG FERTI RESID HARVS
 1 MA              R     R     R     R     R
@N OUTPUTS     FNAME OVVEW SUMRY FROPT GROUT CAOUT WAOUT NIOUT MIOUT DIOUT VBOSE CHOUT OPOUT FMOPT
 1 OU              N     Y     Y     1     Y     Y     Y     Y     Y     N     Y     N     Y     A

@  AUTOMATIC MANAGEMENT
@N PLANTING    PFRST PLAST PH2OL PH2OU PH2OD PSTMX PSTMN
 1 PL          20001 20001    40   100    30    40    10
@N IRRIGATION  IMDEP ITHRL ITHRU IROFF IMETH IRAMT IREFF
 1 IR             30    50   100 GS000 IR001    10     1
@N NITROGEN    NMDEP NMTHR NAMNT NCODE NAOFF
 1 NI             30    50    25 FE001 GS000
@N RESIDUES    RIPCN RTIME RIDEP
 1 RE            100     1    20
@N HARVEST     HFRST HLAST HPCNP HPCNR
 1 HA              0 02001   100     0



