*EXP.DETAILS: UKBL2001FB COVER CROP EXPERIMENT IN A LONG TERM N TRIAL

*GENERAL
@PEOPLE
Hanna Poffenbarger, Montse Salmeron, Patricia Moreno
@ADDRESS
Splindetop farm, University of Kentucky 
@SITE
latitude 38.1233333333333, longitude -84.4972222222222, elevation 267
@ PAREA  PRNO  PLEN  PLDR  PLSP  PLAY HAREA  HRNO  HLEN  HARM.........
    -99   -99   -99   -99   -99   -99   -99   -99   -99   -99

*TREATMENTS                        -------------FACTOR LEVELS------------
@N R O C TNAME.................... CU FL SA IC MP MI MF MR MC MT ME MH SM
 1 1 1 0 Clover N 0                 1  1  1  1  1  0  1  1  0  0  0  1  1
 2 1 1 0 Clover N 84                1  1  2  2  1  0  1  2  0  0  0  1  1
 3 1 1 0 Clover N 168               1  1  3  3  1  0  1  3  0  0  0  1  1
 4 1 1 0 Clover N 336               1  1  4  4  1  0  1  4  0  0  0  1  1

*CULTIVARS
@C CR INGENO CNAME
 1 CV UK0001 Kentucky pride

*FIELDS
@L ID_FIELD WSTA....  FLSA  FLOB  FLDT  FLDD  FLDS  FLST SLTX  SLDP  ID_SOIL    FLNAME
 1 UKBL0001 KYNO2003   -99   -99   -99   -99   -99   -99 -99    -99  UKBLVTRT09 -99
@L ...........XCRD ...........YCRD .....ELEV .............AREA .SLEN .FLWR .SLAS FLHST FHDUR
 1       -84.49722        38.12333       267               -99   -99   -99   -99   -99   -99

*SOIL ANALYSIS
@A SADAT  SMHB  SMPX  SMKE  SANAME
 1 20275 SA011 SA007 SA013  N 0
@A  SABL  SADM  SAOC  SANI SAPHW SAPHB  SAPX  SAKE  SASC
 1     5   1.3   .98    .1     6   6.7  43.9 195.3 0.672
 1    10   1.3   .98    .1     6   6.7  43.9 195.3 0.672
 1    15   1.3   .98    .1     6   6.7  43.9 195.3 0.672
 1    20   1.5   .77   .09   6.1   6.8  44.8 153.6 0.672
 1    30   1.5   .77   .09   6.1   6.8  44.8 153.6 0.672
 1    40   1.6   .38   .06   6.1   6.8  44.8 153.6 0.361
 1    50   1.6   .38   .06   6.1   6.8  44.8 153.6 0.361
 1    60   1.6   .38   .06   6.1   6.8  44.8 153.6 0.361
 1    70   1.4   .17   .03   6.1   6.8  44.8 153.6 0.162
 1    90   1.4   .17   .03   6.1   6.8  44.8 153.6 0.162
 1   120   1.4   .11   .03   6.1   6.8  44.8 153.6 0.105
 1   150   1.4   .11   .02   6.1   6.8  44.8 153.6 0.105
 1   210   1.4   .11   .02   6.1   6.8  44.8 153.6 0.105
@A SADAT  SMHB  SMPX  SMKE  SANAME
 2 20275 SA011 SA007 SA013  N 84
@A  SABL  SADM  SAOC  SANI SAPHW SAPHB  SAPX  SAKE  SASC
 2     5   1.4  1.08   .12     6   6.7  34.9 165.4 0.672
 2    10   1.4  1.08   .12     6   6.7  34.9 165.4 0.672
 2    15   1.4  1.08   .12     6   6.7  34.9 165.4 0.672
 2    20   1.6    .8   .09   6.2   6.9    38 123.1 0.672
 2    30   1.6    .8   .09   6.2   6.9    38 123.1 0.672
 2    40   1.7   .38   .06   6.2   6.9    38 123.1 0.361
 2    50   1.7   .38   .06   6.2   6.9    38 123.1 0.361
 2    60   1.7   .38   .06   6.2   6.9    38 123.1 0.361
 2    70   1.7   .23   .03   6.2   6.9    38 123.1 0.219
 2    90   1.7   .23   .03   6.2   6.9    38 123.1 0.219
 2   120   1.7   .15   .02   6.2   6.9    38 123.1 0.143
 2   150   1.7   .15   .02   6.2   6.9    38 123.1 0.143
 2   210   1.7   .15   .02   6.2   6.9    38 123.1 0.143
@A SADAT  SMHB  SMPX  SMKE  SANAME
 3 20275 SA011 SA007 SA013  N 168
@A  SABL  SADM  SAOC  SANI SAPHW SAPHB  SAPX  SAKE  SASC
 3     5   1.4  1.14   .12   5.9   6.6  37.8 141.4 0.672
 3    10   1.4  1.14   .12   5.9   6.6  37.8 141.4 0.672
 3    15   1.4  1.14   .12   5.9   6.6  37.8 141.4 0.672
 3    20   1.6   .91   .09     6   6.8  47.6 115.9 0.672
 3    30   1.6   .91   .09     6   6.8  47.6 115.9 0.672
 3    40   1.7   .36   .06     6   6.8  47.6 115.9 0.299
 3    50   1.7   .36   .06     6   6.8  47.6 115.9 0.299
 3    60   1.7   .36   .06     6   6.8  47.6 115.9 0.299
 3    70   1.7   .18   .03     6   6.8  47.6 115.9 0.149
 3    90   1.7   .18   .03     6   6.8  47.6 115.9 0.149
 3   120   1.7   .12   .02     6   6.8  47.6 115.9 0.100
 3   150   1.7   .12   .02     6   6.8  47.6 115.9 0.100
 3   210   1.7   .12   .02     6   6.8  47.6 115.9 0.100
@A SADAT  SMHB  SMPX  SMKE  SANAME
 4 20275 SA011 SA007 SA013  N 336
@A  SABL  SADM  SAOC  SANI SAPHW SAPHB  SAPX  SAKE  SASC
 4     5   1.3  1.26   .12   6.4   6.9  43.1 160.1 0.672
 4    10   1.3  1.26   .12   6.4   6.9  43.1 160.1 0.672
 4    15   1.3  1.26   .12   6.4   6.9  43.1 160.1 0.672
 4    20   1.5   .86   .09   6.2   6.8  45.3   110 0.672
 4    30   1.5   .86   .09   6.2   6.8  45.3   110 0.672
 4    40   1.6   .39   .06   6.2   6.8  45.3   110 0.324
 4    50   1.6   .39   .06   6.2   6.8  45.3   110 0.324
 4    60   1.6   .39   .06   6.2   6.8  45.3   110 0.324
 4    70   1.6   .22   .03   6.2   6.8  45.3   110 0.183
 4    90   1.6   .22   .03   6.2   6.8  45.3   110 0.183
 4   120   1.6   .15   .02   6.2   6.8  45.3   110 0.125
 4   150   1.6   .15   .02   6.2   6.8  45.3   110 0.125
 4   210   1.6   .15   .02   6.2   6.8  45.3   110 0.125
!LPM Initial conditions values after 60 cm are kept as the ones of 60 cm
*INITIAL CONDITIONS
@C   PCR ICDAT  ICRT  ICND  ICRN  ICRE  ICWD ICRES ICREN ICREP ICRIP ICRID ICNAME
 1    MZ 20275 692.6   -99     1     1   -99   -99   .37   -99     0     0 N 0
@C  ICBL  SH2O  SNH4  SNO3
 1     5  .246    .8   1.9
 1    10  .246    .8   1.9
 1    15  .246    .8   1.9
 1    20  .309    .3   1.2
 1    30  .309    .3   1.2
 1    40  .371    .4    .2
 1    50  .371    .4    .2
 1    60  .371    .4    .2
 1    70  .371    .4    .2
 1    90  .371    .4    .2
 1   120  .371    .4    .2
 1   150  .371    .4    .2
 1   210  .371    .4    .2
@C   PCR ICDAT  ICRT  ICND  ICRN  ICRE  ICWD ICRES ICREN ICREP ICRIP ICRID ICNAME
 2    MZ 20275  1000   -99     1     1   -99   -99   .46   -99     0     0 N 84
@C  ICBL  SH2O  SNH4  SNO3
 2     5  .254    .4   4.5
 2    10  .254    .4   4.5
 2    15  .254    .4   4.5
 2    20  .298    .2   4.5
 2    30  .298    .2   4.5
 2    40  .347    .5    .7
 2    50  .347    .5    .7
 2    60  .347    .5    .7
 2    70  .347    .5    .7
 2    90  .347    .5    .7
 2   120  .347    .5    .7
 2   150  .347    .5    .7
 2   210  .347    .5    .7
@C   PCR ICDAT  ICRT  ICND  ICRN  ICRE  ICWD ICRES ICREN ICREP ICRIP ICRID ICNAME
 3    MZ 20275  1256   -99     1     1   -99   -99   .63   -99     0     0 N 168
@C  ICBL  SH2O  SNH4  SNO3
 3     5  .294    .5  18.1
 3    10  .294    .5  18.1
 3    15  .294    .5  18.1
 3    20  .295    .8   6.3
 3    30  .295    .8   6.3
 3    40  .361    .3    .8
 3    50  .361    .3    .8
 3    60  .361    .3    .8
 3    70  .361    .3    .8
 3    90  .361    .3    .8
 3   120  .361    .3    .8
 3   150  .361    .3    .8
 3   210  .361    .3    .8
@C   PCR ICDAT  ICRT  ICND  ICRN  ICRE  ICWD ICRES ICREN ICREP ICRIP ICRID ICNAME
 4    MZ 20275  1781   -99     1     1   -99   -99   .79   -99     0     0 N 336
@C  ICBL  SH2O  SNH4  SNO3
 4     5  .236   2.7  35.1
 4    10  .236   2.7  35.1
 4    15  .236   2.7  35.1
 4    20  .269    .4  10.7
 4    30  .269    .4  10.7
 4    40  .316    .7   2.1
 4    50  .316    .7   2.1
 4    60  .316    .7   2.1
 4    70 0.316   0.7  10.2
 4    90 0.316   0.7  10.2
 4   120 0.316   0.7  10.2
 4   150 0.316   0.7  10.2
 4   210 0.316   0.7  10.2

*PLANTING DETAILS
@P PDATE EDATE  PPOP  PPOE  PLME  PLDS  PLRS  PLRD  PLDP  PLWT  PAGE  PENV  PLPH  SPRL                        PLNAME
 1 20282   -99   570   -99     S     R    15    90     5    34   -99   -99   -99   -99                        -99

*FERTILIZERS (INORGANIC)
@F FDATE  FMCD  FACD  FDEP  FAMN  FAMP  FAMK  FAMC  FAMO  FOCD FERNAME
 1 20282 FE400 AP003     0     0     0    28   -99   -99   -99 -99

*RESIDUES AND ORGANIC FERTILIZER
@R RDATE  RCOD  RAMT  RESN  RESP  RESK  RINP  RDEP  RMET RENAME
 1 20275 RE203  3463   .37   -99   -99   -99   -99   -99 N 0
 2 20275 RE203  5008   .46   -99   -99   -99   -99   -99 N 84
 3 20275 RE203  6278   .63   -99   -99   -99   -99   -99 N 168
 4 20275 RE203  8906   .79   -99   -99   -99   -99   -99 N 336

*ENVIRONMENT MODIFICATIONS
@E ODATE EDAY  ERAD  EMAX  EMIN  ERAIN ECO2  EDEW  EWIND ENVNAME  
 1 20252 A   0 A   0 A   0 A   0 A 0.0 A   0 A   0 A   0 

*HARVEST DETAILS
@H HDATE  HSTG  HCOM HSIZE   HPC  HBPC HNAME
 1 21118 GS000   -99   -99   -99   -99 

*SIMULATION CONTROLS
@N GENERAL     NYERS NREPS START SDATE RSEED SNAME.................... SMODEL
 1 GE              1     1     S 20275  2150 DEFAULT SIMULATION CONTR  CRGRO
@N OPTIONS     WATER NITRO SYMBI PHOSP POTAS DISES  CHEM  TILL   CO2
 1 OP              Y     Y     Y     N     N     N     N     Y     M
@N METHODS     WTHER INCON LIGHT EVAPO INFIL PHOTO HYDRO NSWIT MESOM MESEV MESOL
 1 ME              M     M     E     R     S     C     R     1     P     R     2
@N MANAGEMENT  PLANT IRRIG FERTI RESID HARVS
 1 MA              R     R     R     R     R
@N OUTPUTS     FNAME OVVEW SUMRY FROPT GROUT CAOUT WAOUT NIOUT MIOUT DIOUT VBOSE CHOUT OPOUT FMOPT
 1 OU              N     Y     Y     1     Y     Y     Y     Y     Y     N     Y     N     Y     A

@  AUTOMATIC MANAGEMENT
@N PLANTING    PFRST PLAST PH2OL PH2OU PH2OD PSTMX PSTMN
 1 PL          20001 20001    40   100    30    40    10
@N IRRIGATION  IMDEP ITHRL ITHRU IROFF IMETH IRAMT IREFF
 1 IR             30    50   100 GS000 IR001    10     1
@N NITROGEN    NMDEP NMTHR NAMNT NCODE NAOFF
 1 NI             30    50    25 FE001 GS000
@N RESIDUES    RIPCN RTIME RIDEP
 1 RE            100     1    20
@N HARVEST     HFRST HLAST HPCNP HPCNR
 1 HA              0 02001   100     0



